/*--------------------------------*- C++ -*----------------------------------*\
| =========                 |                                                 |
| \\      /  F ield         | OpenFOAM: The Open Source CFD Toolbox           |
|  \\    /   O peration     | Version:  2.1.x                                 |
|   \\  /    A nd           | Web:      www.OpenFOAM.org                      |
|    \\/     M anipulation  |                                                 |
\*---------------------------------------------------------------------------*/
FoamFile
{
    version     2.0;
    format      ascii;
    class       dictionary;
    object      blockMeshDict;
}
// * * * * * * * * * * * * * * * * * * * * * * * * * * * * * * * * * * * * * //

convertToMeters 0.0254; //dimensions are in inches

vertices
(
    (0   0    0)
    (6.5 0    0)
    (6.5 5.5  0)
    (0   5.5  0)
    (0   0    2)
    (6.5 0    2)
    (6.5 5.5  2)
    (0   5.5  2)
);

blocks
(
    hex (0 1 2 3 4 5 6 7) (130 110 40) simpleGrading (1 1 1)
);

edges
(
);

boundary
(
    outerWall
    {
        type patch;
        faces
        (
            (3 7 6 2)
            (0 4 7 3)
            (2 6 5 1)
            (1 5 4 0)
        );
    }

    insulated
    {
        type patch;
        faces
        (
            (0 3 2 1)
            (4 5 6 7)
        );
    }
    
    coldplate
    {
        type patch;
        faces
        (
        );
    }
);

mergePatchPairs
(
);

// ************************************************************************* //
