/*--------------------------------*- C++ -*----------------------------------*\
| =========                 |                                                 |
| \\      /  F ield         | OpenFOAM: The Open Source CFD Toolbox           |
|  \\    /   O peration     | Version:  2.1.x                                 |
|   \\  /    A nd           | Web:      www.OpenFOAM.org                      |
|    \\/     M anipulation  |                                                 |
\*---------------------------------------------------------------------------*/
FoamFile
{
    version     2.0;
    format      ascii;
    class       dictionary;
    object      topoSetDict;
}

// * * * * * * * * * * * * * * * * * * * * * * * * * * * * * * * * * * * * * //

actions
(
    // Hydride
    {
        name    hydride;
        type    cellSet;
        action  new;
        source  cylinderToCell;
        sourceInfo
        {
            p1 (0.008636 0.001651 0.007112);
            p2 (0.008636 0.001651 0.036068);
            radius 0.00635;
        }
    }
    {
        name    hydride;
        type    cellSet;
        action  add;
        source  cylinderToCell;
        sourceInfo
        {
            p1 (0.008636 -0.001651 0.007112);
            p2 (0.008636 -0.001651 0.036068);
            radius 0.00635;
        }
    }
    {
        name    hydride;
        type    cellSet;
        action  add;
        source  cylinderToCell;
        sourceInfo
        {
            p1 (-0.008636 0.001651 0.007112);
            p2 (-0.008636 0.001651 0.036068);
            radius 0.00635;
        }
    }
    {
        name    hydride;
        type    cellSet;
        action  add;
        source  cylinderToCell;
        sourceInfo
        {
            p1 (-0.008636 -0.001651 0.007112);
            p2 (-0.008636 -0.001651 0.036068);
            radius 0.00635;
        }
    }
    {
        name    hydride;
        type    cellSet;
        action  add;
        source  boxToCell;
        sourceInfo
        {
            box (-0.008636 -0.008001 0.007112)(0.008636 0.008001 0.036068);
        }
    }
    {
        name    hydride;
        type    cellSet;
        action  add;
        source  boxToCell;
        sourceInfo
        {
            box (-0.014986 -0.001651 0.007112)(0.014986 0.001651 0.036068);
        }
    }
    
    
    {
        name    hydride;
        type    cellZoneSet;
        action  new;
        source  setToCellZone;
        sourceInfo
        {
            set hydride;           // name of cellSet
        }
    }


    // htx
    {
        name    htx;
        type    cellZoneSet;
        action  clear;
    }
    {
        name    htx;
        type    cellSet;
        action  add;
        source  cellToCell;
        sourceInfo
        {
            set hydride;
        }
    }
    {
        name    htx;
        type    cellSet;
        action  invert;
    }
    {
        name    htx;
        type    cellZoneSet;
        action  new;
        source  setToCellZone;
        sourceInfo
        {
            set htx;
        }
    }
);

// ************************************************************************* //
