/*--------------------------------*- C++ -*----------------------------------*\
| =========                 |                                                 |
| \\      /  F ield         | OpenFOAM: The Open Source CFD Toolbox           |
|  \\    /   O peration     | Version:  2.1.x                                 |
|   \\  /    A nd           | Web:      www.OpenFOAM.org                      |
|    \\/     M anipulation  |                                                 |
\*---------------------------------------------------------------------------*/
FoamFile
{
    version     2.0;
    format      ascii;
    class       dictionary;
    object      blockMeshDict;
}
// * * * * * * * * * * * * * * * * * * * * * * * * * * * * * * * * * * * * * //

convertToMeters 0.001; //dimensions are in mm

vertices
(
    (-20 -20  -20)
    ( 20 -20  -20)
    ( 20  20  -20)
    (-20  20  -20)
    (-20 -20   10)
    ( 20 -20   10)
    ( 20  20   10)
    (-20  20   10)
);

blocks
(
    hex (0 1 2 3 4 5 6 7) (40 40 30) simpleGrading (1 1 1)
);

edges
(
);

boundary
(
    outerWall
    {
        type wall;
        faces
        (
            (3 7 6 2)
            (0 4 7 3)
            (2 6 5 1)
            (1 5 4 0)
            (0 3 2 1)
        );
    }

    top
    {
        type wall;
        faces
        (
            (4 5 6 7)
        );
    }
);

mergePatchPairs
(
);

// ************************************************************************* //
